/*--------------------------------*- C++ -*----------------------------------*\
| =========                 |                                                 |
| \\      /  F ield         | OpenFOAM: The Open Source CFD Toolbox           |
|  \\    /   O peration     | Version:  5.0                                   |
|   \\  /    A nd           | Web:      www.OpenFOAM.org                      |
|    \\/     M anipulation  |                                                 |
\*---------------------------------------------------------------------------*/
FoamFile
{
    version     2.0;
    format      ascii;
    class       polyBoundaryMesh;
    location    "constant/polyMesh";
    object      boundary;
}
// * * * * * * * * * * * * * * * * * * * * * * * * * * * * * * * * * * * * * //

6
(
    front
    {
        type            wedge;
        physicalType    wedge;
        nFaces          5796;
        startFace       8520;
    }
    outlet
    {
        type            patch;
        physicalType    patch;
        nFaces          8;
        startFace       14316;
    }
    inlet
    {
        type            patch;
        physicalType    patch;
        nFaces          8;
        startFace       14324;
    }
    back
    {
        type            wedge;
        physicalType    wedge;
        nFaces          5796;
        startFace       14332;
    }
    topfluid
    {
        type            patch;
        physicalType    patch;
        nFaces          16;
        startFace       20128;
    }
    SiNxwalls
    {
        type            patch;
        physicalType    patch;
        nFaces          166;
        startFace       20144;
    }
)

// ************************************************************************* //
