/*--------------------------------*- C++ -*----------------------------------*\
| =========                 |                                                 |
| \\      /  F ield         | OpenFOAM: The Open Source CFD Toolbox           |
|  \\    /   O peration     | Version:  2.3.1                                 |
|   \\  /    A nd           | Web:      www.OpenFOAM.org                      |
|    \\/     M anipulation  |                                                 |
\*---------------------------------------------------------------------------*/
FoamFile
{
    version     2.0;
    format      ascii;
    class       dictionary;
    location    "constant";
    object      transportProperties;
}
// * * * * * * * * * * * * * * * * * * * * * * * * * * * * * * * * * * * * * //

DT              DT [ 0 2 -1 0 0 0 0 ] 1;
sigma1          sigma1 [ -1 -3 3 -3 0 2 0 ] -2.0e-6;
sigma2          sigma2 [ -1 -3 3 -2 0 2 0 ] 1.4e-3;
sigma3          sigma3 [ -1 -3 3 -1 0 2 0 ] 1.114e-1;
sigma4          sigma4 [ -1 -3 3 0 0 2 0 ] -85.212;
epsilon1          epsilon1 [ -1 -3 4 0 0 2 0 ] 8.85e-12;
epsilon2          epsilon2 [ 0 0 0 0 0 0 0 ] 78.54;
epsilon3          epsilon3 [ 0 0 0 -1 0 0 0 ] -4.579e-3;
epsilon4          epsilon4 [ 0 0 0 1 0 0 0 ] 298.15;
// ************************************************************************* //
